8
./CODE/C2H4Cl2_200_degrees.gzmat
C          0.00000        0.00000        0.00000
C          1.54000        0.00000        0.00000
H         -0.33381        0.00000       -0.94264
H         -0.33381       -0.81635        0.47132
Cl        -0.55746        1.36331        0.78711
H          1.87381       -0.32240        0.88579
H          1.87381        0.92832       -0.16369
Cl         2.09746       -1.01188       -1.20592
